Circuit: *load regulation

Instance "m:u1:1": Length shorter than recommended for a level 1 MOSFET.
Ignoring empty pin current: Ix(u1:4)

Date: Thu Nov 03 19:29:17 2022
Total elapsed time: 54.470 seconds.

tnom = 27
temp = 27
method = trap
totiter = 6000030
traniter = 0
tranpoints = 0
accept = 0
rejected = 0
matrix size = 39
fillins = 8
solver = Normal
Matrix Compiler1: 3.66 KB object code size  1.6/0.7/[0.4]
Matrix Compiler2: 3.69 KB object code size  0.4/0.6/[0.4]

